ownCode/example1cdf.dat
example1cdf                    100.0
BUS DATA FOLLOWS
   1               0000  3 1.0000   0.00     0.00      0.00  177.36   26.57     0.0 1.0000     0.0     0.0     0.0  0.0000 0000 0000
   2               0000  0 0.9816  -3.44    60.00     40.00    0.00    0.00     0.0 0.9816     0.0     0.0     0.0  0.0000 0000 0000
   3               0000  2 1.0000  -3.32    70.00     50.00   60.00  100.00     0.0 1.0000  100.00 -100.00     0.0  0.0000 0000 0000
   4               0000  0 0.9774  -4.18    20.00      5.00    0.00    0.00     0.0 0.9774     0.0     0.0     0.0  0.0000 0000 0000
   5               0000  0 0.9650  -4.48    85.00     65.00    0.00    0.00     0.0 0.9650     0.0     0.0     0.0  0.0000 0000 0000
-999
BRANCH DATA FOLLOWS
   1    2  0000 0 0  0.000000   0.050000  0.00000   220 00000 00000 0000 0  0.0000    0.00   0.0    0.0    0.0      0.0      0.0 0000
   2    3  0000 0 0  0.020000   0.060000  0.20000   100 00000 00000 0000 0  0.0000    0.00   0.0    0.0    0.0      0.0      0.0 0000
   1    3  0000 0 0  0.030000   0.090000  0.00000    80 00000 00000 0000 0  0.0000    0.00   0.0    0.0    0.0      0.0      0.0 0000
   2    5  0000 0 0  0.010000   0.030000  0.20000   200 00000 00000 0000 0  0.0000    0.00   0.0    0.0    0.0      0.0      0.0 0000
   3    4  0000 0 0  0.020000   0.050000  0.00000   110 00000 00000 0000 0  0.0000    0.00   0.0    0.0    0.0      0.0      0.0 0000
   4    5  0000 0 0  0.015000   0.045000  0.10000    90 00000 00000 0000 0  0.0000    0.00   0.0    0.0    0.0      0.0      0.0 0000
-999
LOSS ZONES FOLLOWS
-99
INTERCHANGE DATA FOLLOWS
-9
TIE LINES FOLLOWS
-999
END OF DATA

